Version 4
SHEET 1 1204 680
WIRE -160 -176 -848 -176
WIRE -32 -176 -160 -176
WIRE -160 -112 -160 -176
WIRE 576 -112 208 -112
WIRE 208 -32 208 -112
WIRE -32 0 -32 -176
WIRE -160 48 -160 -32
WIRE -96 48 -160 48
WIRE -848 96 -848 -176
WIRE 208 128 208 48
WIRE 576 128 576 -112
WIRE -160 160 -160 48
WIRE -160 160 -304 160
WIRE -544 208 -704 208
WIRE -368 208 -464 208
WIRE -32 208 -32 96
WIRE 16 208 -32 208
WIRE 160 208 96 208
WIRE -704 256 -704 208
WIRE -32 256 -32 208
WIRE -160 304 -160 160
WIRE -96 304 -160 304
WIRE -848 384 -848 176
WIRE -704 384 -704 336
WIRE -704 384 -848 384
WIRE -304 384 -304 256
WIRE -304 384 -704 384
WIRE -32 384 -32 352
WIRE -32 384 -304 384
WIRE 208 384 208 224
WIRE 208 384 -32 384
WIRE 576 384 576 208
WIRE 576 384 208 384
WIRE 208 416 208 384
FLAG 208 416 0
SYMBOL voltage 576 112 R0
WINDOW 123 0 0 Left 0
WINDOW 39 0 0 Left 0
SYMATTR InstName V1
SYMATTR Value 250
SYMBOL res 192 -48 R0
SYMATTR InstName R1
SYMATTR Value 20
SYMBOL voltage -704 240 R0
WINDOW 123 0 0 Left 0
WINDOW 39 0 0 Left 0
WINDOW 3 24 119 Left 2
SYMATTR InstName V2
SYMATTR Value PULSE(0 3.3 0 1p 1p 50u 100u)
SYMBOL nmos 160 128 R0
SYMATTR InstName M1
SYMATTR Value SPA11N60C3
SYMBOL voltage -848 80 R0
WINDOW 123 0 0 Left 0
WINDOW 39 0 0 Left 0
SYMATTR InstName V3
SYMATTR Value 12
SYMBOL npn -96 0 R0
SYMATTR InstName Q1
SYMATTR Value 2N2222
SYMBOL pnp -96 352 M180
SYMATTR InstName Q2
SYMATTR Value 2N2907
SYMBOL res -448 192 R90
WINDOW 0 0 56 VBottom 2
WINDOW 3 32 56 VTop 2
SYMATTR InstName R2
SYMATTR Value 1000
SYMBOL res -176 -128 R0
SYMATTR InstName R3
SYMATTR Value 470
SYMBOL res 112 192 R90
WINDOW 0 0 56 VBottom 2
WINDOW 3 32 56 VTop 2
SYMATTR InstName R4
SYMATTR Value 47
SYMBOL npn2 -368 160 R0
SYMATTR InstName Q3
SYMATTR Value 2SC4725
TEXT -1104 288 Left 2 !;.dc V1 0 250 1
TEXT -1106 320 Left 2 !.tran 0 1m 0 0.1m
