Version 4
SHEET 1 880 680
WIRE 128 -112 16 -112
WIRE 208 -112 128 -112
WIRE 576 -112 208 -112
WIRE 16 -48 16 -112
WIRE 128 -48 128 -112
WIRE 208 -32 208 -112
WIRE 128 80 128 32
WIRE 16 128 16 32
WIRE 64 128 16 128
WIRE 208 128 208 48
WIRE 576 128 576 -112
WIRE 16 160 16 128
WIRE 128 208 128 176
WIRE 160 208 128 208
WIRE -400 256 -544 256
WIRE -208 256 -320 256
WIRE 16 256 16 240
WIRE 16 256 -16 256
WIRE 128 256 128 208
WIRE -544 272 -544 256
WIRE -288 352 -544 352
WIRE -208 352 -288 352
WIRE 16 352 -16 352
WIRE -288 384 -288 352
WIRE 16 384 16 352
WIRE 128 384 128 336
WIRE 128 384 16 384
WIRE 208 384 208 224
WIRE 208 384 128 384
WIRE 576 384 576 208
WIRE 576 384 208 384
WIRE 208 416 208 384
FLAG 208 416 0
FLAG -288 384 COM
SYMBOL voltage 576 112 R0
WINDOW 123 0 0 Left 0
WINDOW 39 0 0 Left 0
SYMATTR InstName V1
SYMATTR Value 300
SYMBOL res 192 -48 R0
SYMATTR InstName R1
SYMATTR Value 26
SYMBOL res 112 -64 R0
SYMATTR InstName R2
SYMATTR Value 400k
SYMBOL res 112 240 R0
SYMATTR InstName R3
SYMATTR Value 22k
SYMBOL res 32 48 R180
WINDOW 0 36 76 Left 2
WINDOW 3 36 40 Left 2
SYMATTR InstName R4
SYMATTR Value 10000k
SYMBOL Optos\\PC817A -112 304 R0
SYMATTR InstName U1
SYMBOL voltage -544 256 R0
WINDOW 123 0 0 Left 0
WINDOW 39 0 0 Left 0
SYMATTR InstName V2
SYMATTR Value 3.3
SYMBOL res -304 240 R90
WINDOW 0 0 56 VBottom 2
WINDOW 3 32 56 VTop 2
SYMATTR InstName R5
SYMATTR Value 100
SYMBOL nmos 160 128 R0
SYMATTR InstName M1
SYMATTR Value SPA11N60C3
SYMBOL pnp2 64 176 M180
SYMATTR InstName Q1
SYMBOL res 0 144 R0
SYMATTR InstName R6
SYMATTR Value 150k
TEXT -578 440 Left 2 !.tran 0 1m 0 0.1m
