Version 4
SHEET 1 1204 680
WIRE -384 -144 -848 -144
WIRE -160 -144 -384 -144
WIRE -32 -144 -160 -144
WIRE 544 -144 288 -144
WIRE -384 -80 -384 -144
WIRE -160 -80 -160 -144
WIRE 288 -80 288 -144
WIRE -32 0 -32 -144
WIRE -160 48 -160 0
WIRE -160 48 -272 48
WIRE -96 48 -160 48
WIRE -848 96 -848 -144
WIRE -384 96 -384 0
WIRE -336 96 -384 96
WIRE 96 96 80 96
WIRE 192 96 160 96
WIRE 288 96 288 0
WIRE 544 128 544 -144
WIRE -384 176 -384 96
WIRE -32 176 -32 96
WIRE 80 176 80 96
WIRE 80 176 -32 176
WIRE 96 176 80 176
WIRE 192 176 192 96
WIRE 192 176 176 176
WIRE 240 176 192 176
WIRE -608 224 -704 224
WIRE -448 224 -528 224
WIRE -704 256 -704 224
WIRE -32 256 -32 176
WIRE -704 272 -704 256
WIRE -160 304 -160 48
WIRE -96 304 -160 304
WIRE -848 384 -848 176
WIRE -704 384 -704 336
WIRE -704 384 -848 384
WIRE -384 384 -384 272
WIRE -384 384 -704 384
WIRE -272 384 -272 144
WIRE -272 384 -384 384
WIRE -32 384 -32 352
WIRE -32 384 -272 384
WIRE 288 384 288 192
WIRE 288 384 -32 384
WIRE 544 384 544 208
WIRE 544 384 288 384
WIRE 288 416 288 384
FLAG 288 416 0
SYMBOL voltage 544 112 R0
WINDOW 123 0 0 Left 0
WINDOW 39 0 0 Left 0
SYMATTR InstName V1
SYMATTR Value 250
SYMBOL res 272 -96 R0
SYMATTR InstName R1
SYMATTR Value 17.63
SYMBOL voltage -704 240 R0
WINDOW 123 0 0 Left 0
WINDOW 39 0 0 Left 0
WINDOW 3 -129 168 Left 2
SYMATTR Value PULSE(0 3.3 0 1p 1p 50u 100u)
SYMATTR InstName V2
SYMBOL nmos 240 96 R0
WINDOW 0 5 121 Left 2
WINDOW 3 -114 151 Left 2
SYMATTR InstName M1
SYMATTR Value SUM85N03-06P
SYMBOL voltage -848 80 R0
WINDOW 123 0 0 Left 0
WINDOW 39 0 0 Left 0
SYMATTR InstName V3
SYMATTR Value 12
SYMBOL npn -96 0 R0
SYMATTR InstName Q1
SYMATTR Value 2N2222
SYMBOL pnp -96 352 M180
WINDOW 0 57 35 Left 2
WINDOW 3 56 68 Left 2
SYMATTR InstName Q2
SYMATTR Value 2N2907
SYMBOL res -512 208 R90
WINDOW 0 0 56 VBottom 2
WINDOW 3 32 56 VTop 2
SYMATTR InstName R2
SYMATTR Value 1000
SYMBOL res -176 -96 R0
SYMATTR InstName R3
SYMATTR Value 470
SYMBOL res 192 160 R90
WINDOW 0 0 56 VBottom 2
WINDOW 3 32 56 VTop 2
SYMATTR InstName R4
SYMATTR Value 20
SYMBOL npn2 -448 176 R0
SYMATTR InstName Q3
SYMATTR Value 2SC4725
SYMBOL schottky 160 80 R90
WINDOW 0 -23 32 VBottom 2
WINDOW 3 -29 39 VTop 2
SYMATTR InstName D1
SYMATTR Value 1N5817
SYMATTR Description Diode
SYMATTR Type diode
SYMBOL res -400 -96 R0
SYMATTR InstName R5
SYMATTR Value 470
SYMBOL npn2 -336 48 R0
SYMATTR InstName Q4
SYMATTR Value 2SC4725
TEXT -1104 288 Left 2 !;.dc V1 0 250 1
TEXT -1104 320 Left 2 !.tran 0 1m 0 0.1m
